Version 4
SHEET 1 1512 1016
WIRE 976 -272 864 -272
WIRE 864 -192 864 -272
WIRE 976 -192 976 -272
WIRE 320 -64 80 -64
WIRE 320 -48 320 -64
WIRE 864 -32 864 -112
WIRE 320 64 320 32
WIRE 416 64 320 64
WIRE 496 64 416 64
WIRE 592 64 560 64
WIRE 720 64 592 64
WIRE 1152 64 1008 64
WIRE 1168 64 1152 64
WIRE 1280 64 1216 64
WIRE 592 80 592 64
WIRE 80 128 80 -64
WIRE 320 128 320 64
WIRE 416 224 416 64
WIRE 496 224 416 224
WIRE 640 224 560 224
WIRE 720 224 640 224
WIRE 1152 224 1008 224
WIRE 1280 224 1280 64
WIRE 1280 224 1216 224
WIRE 80 336 80 208
WIRE 320 336 320 208
WIRE 320 336 80 336
WIRE 320 368 320 336
WIRE 416 368 416 224
WIRE 496 368 416 368
WIRE 688 368 560 368
WIRE 720 368 688 368
WIRE 1152 368 1008 368
WIRE 1280 368 1280 224
WIRE 1280 368 1216 368
WIRE 1280 608 1280 368
WIRE 864 624 864 544
FLAG 320 368 0
FLAG 1280 608 0
FLAG 864 624 0
FLAG 976 -192 0
FLAG 592 160 0
FLAG 640 304 0
FLAG 688 448 0
SYMBOL Misc\\battery 80 112 R0
WINDOW 123 0 0 Left 0
WINDOW 39 0 0 Left 0
SYMATTR InstName Alkaline_9V
SYMATTR Value 9V
SYMBOL res 304 -64 R0
SYMATTR InstName R1
SYMATTR Value 470
SYMBOL res 304 112 R0
SYMATTR InstName R2
SYMATTR Value 270
SYMBOL Microcontrollers\\MSP430_FULL 1072 64 R0
SYMATTR InstName X1
SYMBOL my_symbols\\pbs_no 560 32 R0
SYMATTR InstName S1
SYMBOL my_symbols\\pbs_no 560 192 R0
SYMATTR InstName S2
SYMBOL my_symbols\\pbs_no 560 336 R0
SYMATTR InstName S3
SYMBOL LED 1152 80 R270
WINDOW 0 72 32 VTop 2
WINDOW 3 0 32 VBottom 2
SYMATTR InstName LED0
SYMBOL LED 1152 240 R270
WINDOW 0 72 32 VTop 2
WINDOW 3 0 32 VBottom 2
SYMATTR InstName LED1
SYMBOL LED 1152 384 R270
WINDOW 0 72 32 VTop 2
WINDOW 3 0 32 VBottom 2
SYMATTR InstName LED2
SYMBOL voltage 864 -96 R180
WINDOW 0 24 96 Left 2
WINDOW 3 24 16 Left 2
WINDOW 123 0 0 Left 0
WINDOW 39 0 0 Left 0
SYMATTR InstName V_PC
SYMATTR Value 3.3V
SYMBOL res 576 64 R0
SYMATTR InstName PD
SYMATTR Value 35k
SYMBOL res 624 208 R0
SYMATTR InstName PD
SYMATTR Value 35k
SYMBOL res 672 352 R0
WINDOW 0 -24 31 Left 2
WINDOW 3 -22 71 Left 2
SYMATTR InstName PD
SYMATTR Value 35k
TEXT 528 24 Center 2 !PB0
TEXT 528 328 Center 2 !PB2
TEXT 528 184 Center 2 !PB1
