Version 4
SHEET 1 880 680
WIRE 0 -320 -80 -320
WIRE 0 -288 0 -320
WIRE -80 -224 -80 -320
WIRE 0 -112 0 -208
WIRE 272 0 192 0
WIRE 448 0 352 0
WIRE 592 0 512 0
WIRE -832 144 -864 144
WIRE -640 144 -752 144
WIRE -512 144 -544 144
WIRE -416 144 -432 144
WIRE -288 144 -352 144
WIRE -208 144 -288 144
WIRE 272 144 192 144
WIRE 448 144 352 144
WIRE 592 144 592 0
WIRE 592 144 512 144
WIRE -288 176 -288 144
WIRE -864 288 -864 144
WIRE -592 288 -592 224
WIRE -288 288 -288 256
WIRE 272 288 192 288
WIRE 448 288 352 288
WIRE 592 288 592 144
WIRE 592 288 512 288
WIRE 592 496 592 288
WIRE 0 512 0 432
FLAG 592 496 0
FLAG -80 -224 0
FLAG 0 512 0
FLAG -592 288 0
FLAG -864 288 0
FLAG -288 288 0
SYMBOL Microcontrollers\\PIC24_FULL 0 144 R0
SYMATTR InstName X1
SYMBOL res 368 -16 R90
WINDOW 0 0 56 VBottom 2
WINDOW 3 32 56 VTop 2
SYMATTR InstName R0
SYMATTR Value 100
SYMATTR SpiceLine tol=5 pwr=.25
SYMBOL res 368 128 R90
WINDOW 0 0 56 VBottom 2
WINDOW 3 32 56 VTop 2
SYMATTR InstName R1
SYMATTR Value 100
SYMATTR SpiceLine tol=5 pwr=.25
SYMBOL res 368 272 R90
WINDOW 0 0 56 VBottom 2
WINDOW 3 32 56 VTop 2
SYMATTR InstName R2
SYMATTR Value 100
SYMATTR SpiceLine tol=5 pwr=.25
SYMBOL LED 448 16 R270
WINDOW 0 72 32 VTop 2
WINDOW 3 0 32 VBottom 2
SYMATTR InstName LED0
SYMATTR Value ""
SYMBOL LED 448 160 R270
WINDOW 0 72 32 VTop 2
WINDOW 3 0 32 VBottom 2
SYMATTR InstName LED1
SYMATTR Value ""
SYMBOL LED 448 304 R270
WINDOW 0 72 32 VTop 2
WINDOW 3 0 32 VBottom 2
SYMATTR InstName LED2
SYMATTR Value ""
SYMBOL voltage 0 -192 R180
WINDOW 0 -168 98 Left 2
WINDOW 3 -89 20 Left 2
SYMATTR InstName USB_PC_PS
SYMATTR Value 3.3V
SYMBOL Misc\\battery -736 144 R90
WINDOW 0 -32 56 VBottom 2
WINDOW 3 32 56 VTop 2
WINDOW 123 0 0 Left 0
WINDOW 39 0 0 Left 0
SYMATTR InstName 9V_Alk_Batt
SYMATTR Value 6.80
SYMBOL Forat_Symbol\\uA7805C_Volt_Reg -592 176 R0
SYMATTR InstName X2
SYMBOL my_symbols\\pbs_no -352 112 R0
SYMATTR InstName S1
SYMBOL res -304 160 R0
WINDOW 0 -133 33 Left 2
WINDOW 3 -52 72 Left 2
SYMATTR InstName Pull_Down
SYMATTR Value 35k
SYMBOL res -416 128 R90
WINDOW 0 0 56 VBottom 2
WINDOW 3 32 56 VTop 2
SYMATTR InstName R
SYMATTR Value 18k
